                                  MODFLOW-NWT-SWR1 
      U.S. GEOLOGICAL SURVEY MODULAR FINITE-DIFFERENCE GROUNDWATER-FLOW MODEL
                             VERSION 1.1.4 4/01/2018
                    BASED ON MODFLOW-2005 VERSION 1.12.00 02/03/2017

 LIST FILE: model1.list
                         UNIT    2

 OPENING model1.nwt
 FILE TYPE:NWT   UNIT   32   STATUS:OLD    
 FORMAT:FORMATTED              ACCESS:SEQUENTIAL          

 OPENING model1.dis
 FILE TYPE:DIS   UNIT   11   STATUS:OLD    
 FORMAT:FORMATTED              ACCESS:SEQUENTIAL          

 OPENING model1.bas
 FILE TYPE:BAS6   UNIT   13   STATUS:OLD    
 FORMAT:FORMATTED              ACCESS:SEQUENTIAL          

 OPENING model1.upw
 FILE TYPE:UPW   UNIT   31   STATUS:OLD    
 FORMAT:FORMATTED              ACCESS:SEQUENTIAL          

 OPENING model1.rch
 FILE TYPE:RCH   UNIT   19   STATUS:OLD    
 FORMAT:FORMATTED              ACCESS:SEQUENTIAL          

 OPENING model1.evt
 FILE TYPE:EVT   UNIT   22   STATUS:OLD    
 FORMAT:FORMATTED              ACCESS:SEQUENTIAL          

 OPENING model1.drn
 FILE TYPE:DRN   UNIT   21   STATUS:OLD    
 FORMAT:FORMATTED              ACCESS:SEQUENTIAL          

 OPENING model1.oc
 FILE TYPE:OC   UNIT   14   STATUS:OLD    
 FORMAT:FORMATTED              ACCESS:SEQUENTIAL          

 OPENING model1.hds
 FILE TYPE:DATA(BINARY)   UNIT   51   STATUS:REPLACE
 FORMAT:BINARY                 ACCESS:SEQUENTIAL          

 BAS -- BASIC PACKAGE, VERSION 1.1.4, 4/01/2018 INPUT READ FROM UNIT   13
 
 MODFLOW was compiled using mixed precision
 Precision of REAL variables:           6
 Precision of DOUBLE PRECISION variables:          15

 DISCRETIZATION INPUT DATA READ FROM UNIT   11
 # DIS package for  MODFLOW-NWT, generated by Flopy.
    5 LAYERS       132 ROWS       108 COLUMNS
    1 STRESS PERIOD(S) IN SIMULATION
 MODEL TIME UNIT IS SECONDS
 MODEL LENGTH UNIT IS METERS
  Confining bed flag for each layer:
   0   0   0   0   0

                     DELR =   200.000    

                     DELC =   200.000    



           TOP ELEVATION OF LAYER 1
 READING ON UNIT   11 WITH FORMAT: (108E15.6)          



             MODEL LAYER BOTTOM EL. FOR LAYER   1
 READING ON UNIT   11 WITH FORMAT: (108E15.6)          



             MODEL LAYER BOTTOM EL. FOR LAYER   2
 READING ON UNIT   11 WITH FORMAT: (108E15.6)          



             MODEL LAYER BOTTOM EL. FOR LAYER   3
 READING ON UNIT   11 WITH FORMAT: (108E15.6)          



             MODEL LAYER BOTTOM EL. FOR LAYER   4
 READING ON UNIT   11 WITH FORMAT: (108E15.6)          



             MODEL LAYER BOTTOM EL. FOR LAYER   5
 READING ON UNIT   11 WITH FORMAT: (108E15.6)          


 STRESS PERIOD     LENGTH       TIME STEPS     MULTIPLIER FOR DELT    SS FLAG
 ----------------------------------------------------------------------------
        1         1.000000          1                    1.000         SS

 STEADY-STATE SIMULATION



 
 # BAS6 package for  MODFLOW-NWT, generated by Flopy.                            
 THE FREE FORMAT OPTION HAS BEEN SELECTED



                     BOUNDARY ARRAY FOR LAYER   1
 READING ON UNIT   13 WITH FORMAT: (108I10)            



                     BOUNDARY ARRAY FOR LAYER   2
 READING ON UNIT   13 WITH FORMAT: (108I10)            



                     BOUNDARY ARRAY FOR LAYER   3
 READING ON UNIT   13 WITH FORMAT: (108I10)            



                     BOUNDARY ARRAY FOR LAYER   4
 READING ON UNIT   13 WITH FORMAT: (108I10)            



                     BOUNDARY ARRAY FOR LAYER   5
 READING ON UNIT   13 WITH FORMAT: (108I10)            

 AQUIFER HEAD WILL BE SET TO -2.00000E+20 AT ALL NO-FLOW NODES (IBOUND=0).



                       INITIAL HEAD FOR LAYER   1
 READING ON UNIT   13 WITH FORMAT: (108E15.6)          



                       INITIAL HEAD FOR LAYER   2
 READING ON UNIT   13 WITH FORMAT: (108E15.6)          



                       INITIAL HEAD FOR LAYER   3
 READING ON UNIT   13 WITH FORMAT: (108E15.6)          



                       INITIAL HEAD FOR LAYER   4
 READING ON UNIT   13 WITH FORMAT: (108E15.6)          



                       INITIAL HEAD FOR LAYER   5
 READING ON UNIT   13 WITH FORMAT: (108E15.6)          
 # OC package for  MODFLOW-NWT, generated by Flopy.

 OUTPUT CONTROL IS SPECIFIED ONLY AT TIME STEPS FOR WHICH OUTPUT IS DESIRED
 COMPACT CELL-BY-CELL BUDGET FILES WILL BE WRITTEN
 AUXILIARY DATA WILL BE SAVED IN CELL-BY-CELL BUDGET FILES
 HEAD PRINT FORMAT CODE IS   0    DRAWDOWN PRINT FORMAT CODE IS   0
 HEADS WILL BE SAVED ON UNIT   51    DRAWDOWNS WILL BE SAVED ON UNIT    0
 # NWT package for  MODFLOW-NWT, generated by Flopy.

 NWT1 -- Newton Solver, VERSION 1.1.4, 4/01/2018
         INPUT READ FROM UNIT 32

 COMPLEX OPTION:
 DEFAULT SOLVER INPUT VALUES REFLECT STRONGLY NONLINEAR MODEL
 ***XMD linear solver will be used***
 
   CONVERGENCE CRITERION OF   0.100000E-01 FOR HEAD SOLUTION
   AND A TOLERANCE OF   0.500000E+03 FOR FLOW SOLUTION AND 
   A MAXIMUM OF   150 OUTER ITERATIONS. 


   D-B-D REDUCTION FACTOR OF    0.850000E+00 AND 
   A D-B-D INCREASE FACTOR OF    0.100000E-04 AND 
   A D-B-D RELAXATION OF    0.000000E+00 AND 
   A MOMENTUM FACTOR OF    0.100000E+00 .


   BACKTRACKING IS ACTIVE 
   THE MAXIMUM NUMBER OF BACKTRACKS IS    50 AND 
   THE BACKTRACKING TOLERANCE IS    0.110000E+01 AND
   THE BACKTRACKING REDUCTION FACTOR IS    0.700000E+00

 XMD -- LINEAR SOLUTION BY XMD PACKAGE VERSION 1.30
     BY MOTOMU IBARAKI, OHIO STATE UNIVERSITY, COLOMBUS, OH
                 INPUT READ FROM UNIT 32
 ACCELERATION METHOD                    (IACL) =         2
 NODE ORDERING FLAG                   (NORDER) =         0
 LEVEL OF FILL                         (LEVEL) =        15
 MAXIMUM NUMBER OF ORTHOGONALIZATIONS  (NORTH) =         1
 INDEX FOR USING REDUCED SYSTEM      (IREDSYS) =         1
 RESID. REDUCTION CONVERGE CRITERION  (RRCTOL) =  0.000000E+00
 INDEX FOR USING DROP TOLERANCE     (IDROPTOL) =         1
 DROP TOLERANCE VALUE                  (EPSRN) =  0.100000E-02
 CONVERGENCE CRITERIA OF           (HCLOSEXMD) =  0.100000E-03
 MAX. NUMBER OF LINEAR ITERATIONS  (MXITERXMD) =       200


 UPW1 -- UPSTREAM WEIGHTING FLOW PACKAGE, VERSION 1.1.4, 4/01/2018
         INPUT READ FROM UNIT 31

 # UPW package for  MODFLOW-NWT, generated by Flopy.
 No named parameters

   LAYER FLAGS:
 LAYER       LAYTYP          LAYAVG    CHANI           LAYVKA           LAYWET
 ---------------------------------------------------------------------------
    1             1             0     1.000E+00             0             0
    2             1             0     1.000E+00             0             0
    3             1             0     1.000E+00             0             0
    4             1             0     1.000E+00             0             0
    5             0             0     1.000E+00             0             0

   INTERPRETATION OF LAYER FLAGS:
                        INTERBLOCK     HORIZONTAL    DATA IN
         LAYER TYPE   TRANSMISSIVITY   ANISOTROPY   ARRAY VKA   WETTABILITY
 LAYER   (LAYTYP)        (LAYAVG)      (CHANI)     (LAYVKA)       (LAYWET)
 ---------------------------------------------------------------------------
    1   CONVERTIBLE      HARMONIC     1.000E+00    VERTICAL K  NON-WETTABLE
    2   CONVERTIBLE      HARMONIC     1.000E+00    VERTICAL K  NON-WETTABLE
    3   CONVERTIBLE      HARMONIC     1.000E+00    VERTICAL K  NON-WETTABLE
    4   CONVERTIBLE      HARMONIC     1.000E+00    VERTICAL K  NON-WETTABLE
    5      CONFINED      HARMONIC     1.000E+00    VERTICAL K  NON-WETTABLE

    HYD. COND. ALONG ROWS =  1.000000E-04 FOR LAYER   1

      VERTICAL HYD. COND. =   1.00000     FOR LAYER   1

    HYD. COND. ALONG ROWS =  1.000000E-05 FOR LAYER   2

      VERTICAL HYD. COND. =   1.00000     FOR LAYER   2

    HYD. COND. ALONG ROWS =  1.000000E-07 FOR LAYER   3

      VERTICAL HYD. COND. =   1.00000     FOR LAYER   3

    HYD. COND. ALONG ROWS =  1.000000E-08 FOR LAYER   4

      VERTICAL HYD. COND. =   1.00000     FOR LAYER   4

    HYD. COND. ALONG ROWS =  1.000000E-09 FOR LAYER   5

      VERTICAL HYD. COND. =   1.00000     FOR LAYER   5

 DRN -- DRAIN PACKAGE, VERSION 7, 5/2/2005 INPUT READ FROM UNIT   21
 # DRN package for  MODFLOW-NWT, generated by Flopy.
 No named parameters
 MAXIMUM OF    929 ACTIVE DRAINS AT ONE TIME


     0 Drain parameters

 EVT -- EVAPOTRANSPIRATION PACKAGE, VERSION 7, 5/2/2005
         INPUT READ FROM UNIT   22
 # EVT package for  MODFLOW-NWT, generated by Flopy.
 No named parameters
 OPTION 1 -- EVAPOTRANSPIRATION FROM TOP LAYER


     0 Evapotranspiration parameters

 RCH -- RECHARGE PACKAGE, VERSION 7, 5/2/2005 INPUT READ FROM UNIT   19
 # RCH package for  MODFLOW-NWT, generated by Flopy.
 No named parameters
 OPTION 3 -- RECHARGE TO HIGHEST ACTIVE NODE IN EACH VERTICAL COLUMN


     0 Recharge parameters
1
                            STRESS PERIOD NO.    1, LENGTH =   1.000000    
                            -----------------------------------------------

                              NUMBER OF TIME STEPS =     1

                               MULTIPLIER FOR DELT =     1.000

                            INITIAL TIME STEP SIZE =   1.000000    

 DRAIN NO.  LAYER   ROW   COL     DRAIN EL.  CONDUCTANCE         
 ----------------------------------------------------------------
      1      1     12     81       4478.          0.1000E-02
      2      1     12     82       4476.          0.1000E-02
      3      1     13     81       4482.          0.1000E-02
      4      1     13     83       4474.          0.1000E-02
      5      1     14     80       4482.          0.1000E-02
      6      1     14     83       4482.          0.1000E-02
      7      1     14     84       4487.          0.1000E-02
      8      1     15     79       4484.          0.1000E-02
      9      1     15     80       4488.          0.1000E-02
     10      1     15     85       4512.          0.1000E-02
     11      1     15     86       4547.          0.1000E-02
     12      1     15     87       4556.          0.1000E-02
     13      1     16     79       4489.          0.1000E-02
     14      1     17     78       4478.          0.1000E-02
     15      1     18     78       4469.          0.1000E-02
     16      1     18     79       4478.          0.1000E-02
     17      1     19     78       4480.          0.1000E-02
     18      1     19     79       4474.          0.1000E-02
     19      1     20     78       4481.          0.1000E-02
     20      1     21     78       4466.          0.1000E-02
     21      1     22     78       4467.          0.1000E-02
     22      1     23     78       4470.          0.1000E-02
     23      1     24     78       4460.          0.1000E-02
     24      1     25     78       4456.          0.1000E-02
     25      1     25     79       4459.          0.1000E-02
     26      1     25     82       4463.          0.1000E-02
     27      1     25     83       4478.          0.1000E-02
     28      1     25     84       4492.          0.1000E-02
     29      1     25     99       4506.          0.1000E-02
     30      1     25    100       4534.          0.1000E-02
     31      1     25    101       4546.          0.1000E-02
     32      1     25    104       4557.          0.1000E-02
     33      1     26     79       4459.          0.1000E-02
     34      1     26     80       4462.          0.1000E-02
     35      1     26     81       4464.          0.1000E-02
     36      1     26     82       4468.          0.1000E-02
     37      1     26     83       4470.          0.1000E-02
     38      1     26     97       4501.          0.1000E-02
     39      1     26     98       4502.          0.1000E-02
     40      1     26     99       4520.          0.1000E-02
     41      1     26    101       4532.          0.1000E-02
     42      1     26    102       4547.          0.1000E-02
     43      1     26    104       4558.          0.1000E-02
     44      1     27     78       4458.          0.1000E-02
     45      1     27     79       4468.          0.1000E-02
     46      1     27     80       4466.          0.1000E-02
     47      1     27     81       4477.          0.1000E-02
     48      1     27     82       4463.          0.1000E-02
     49      1     27     83       4465.          0.1000E-02
     50      1     27     84       4481.          0.1000E-02
     51      1     27     97       4507.          0.1000E-02
     52      1     27    103       4548.          0.1000E-02
     53      1     27    104       4575.          0.1000E-02
     54      1     28     77       4457.          0.1000E-02
     55      1     28     78       4485.          0.1000E-02
     56      1     28     84       4481.          0.1000E-02
     57      1     28     85       4482.          0.1000E-02
     58      1     28     86       4491.          0.1000E-02
     59      1     28     87       4491.          0.1000E-02
     60      1     28     88       4487.          0.1000E-02
     61      1     28     90       4490.          0.1000E-02
     62      1     28     91       4489.          0.1000E-02
     63      1     28     92       4494.          0.1000E-02
     64      1     28     93       4494.          0.1000E-02
     65      1     28     94       4495.          0.1000E-02
     66      1     28     95       4496.          0.1000E-02
     67      1     28     96       4523.          0.1000E-02
     68      1     28     97       4573.          0.1000E-02
     69      1     29     68       4461.          0.1000E-02
     70      1     29     76       4462.          0.1000E-02
     71      1     29     77       4484.          0.1000E-02
     72      1     29     88       4489.          0.1000E-02
     73      1     29     89       4493.          0.1000E-02
     74      1     29     91       4494.          0.1000E-02
     75      1     29     92       4489.          0.1000E-02
     76      1     29     95       4499.          0.1000E-02
     77      1     30     68       4458.          0.1000E-02
     78      1     30     74       4433.          0.1000E-02
     79      1     30     75       4448.          0.1000E-02
     80      1     30     89       4499.          0.1000E-02
     81      1     30     90       4496.          0.1000E-02
     82      1     30     91       4500.          0.1000E-02
     83      1     31     67       4424.          0.1000E-02
     84      1     31     73       4432.          0.1000E-02
     85      1     31     74       4441.          0.1000E-02
     86      1     31     89       4527.          0.1000E-02
     87      1     32     68       4438.          0.1000E-02
     88      1     32     73       4452.          0.1000E-02
     89      1     32     89       4558.          0.1000E-02
     90      1     33     68       4416.          0.1000E-02
     91      1     33     72       4418.          0.1000E-02
     92      1     33     89       4576.          0.1000E-02
     93      1     34     67       4402.          0.1000E-02
     94      1     34     72       4409.          0.1000E-02
     95      1     34     89       4582.          0.1000E-02
     96      1     35     56       4228.          0.1000E-02
     97      1     35     67       4398.          0.1000E-02
     98      1     35     68       4411.          0.1000E-02
     99      1     35     72       4397.          0.1000E-02
    100      1     35     73       4423.          0.1000E-02
    101      1     36     56       4234.          0.1000E-02
    102      1     36     67       4400.          0.1000E-02
    103      1     36     72       4395.          0.1000E-02
    104      1     37     55       4200.          0.1000E-02
    105      1     37     67       4388.          0.1000E-02
    106      1     37     71       4388.          0.1000E-02
    107      1     37     72       4383.          0.1000E-02
    108      1     38     54       4178.          0.1000E-02
    109      1     38     55       4195.          0.1000E-02
    110      1     38     67       4387.          0.1000E-02
    111      1     38     68       4374.          0.1000E-02
    112      1     38     69       4357.          0.1000E-02
    113      1     38     70       4372.          0.1000E-02
    114      1     38     71       4381.          0.1000E-02
    115      1     39     54       4182.          0.1000E-02
    116      1     39     55       4196.          0.1000E-02
    117      1     39     56       4210.          0.1000E-02
    118      1     39     57       4295.          0.1000E-02
    119      1     39     58       4306.          0.1000E-02
    120      1     39     59       4318.          0.1000E-02
    121      1     39     60       4321.          0.1000E-02
    122      1     39     68       4362.          0.1000E-02
    123      1     39     69       4354.          0.1000E-02
    124      1     40     53       4161.          0.1000E-02
    125      1     40     54       4187.          0.1000E-02
    126      1     40     59       4320.          0.1000E-02
    127      1     40     68       4347.          0.1000E-02
    128      1     41     52       4157.          0.1000E-02
    129      1     41     53       4185.          0.1000E-02
    130      1     41     68       4343.          0.1000E-02
    131      1     42     51       4140.          0.1000E-02
    132      1     42     52       4169.          0.1000E-02
    133      1     42     67       4341.          0.1000E-02
    134      1     42     68       4358.          0.1000E-02
    135      1     43     51       4149.          0.1000E-02
    136      1     43     66       4330.          0.1000E-02
    137      1     44     51       4133.          0.1000E-02
    138      1     44     56       4171.          0.1000E-02
    139      1     44     57       4164.          0.1000E-02
    140      1     44     58       4235.          0.1000E-02
    141      1     44     63       4285.          0.1000E-02
    142      1     44     64       4328.          0.1000E-02
    143      1     44     65       4340.          0.1000E-02
    144      1     44     66       4370.          0.1000E-02
    145      1     45     34       4316.          0.1000E-02
    146      1     45     51       4071.          0.1000E-02
    147      1     45     52       4097.          0.1000E-02
    148      1     45     53       4148.          0.1000E-02
    149      1     45     54       4164.          0.1000E-02
    150      1     45     55       4210.          0.1000E-02
    151      1     45     58       4214.          0.1000E-02
    152      1     45     59       4251.          0.1000E-02
    153      1     45     60       4248.          0.1000E-02
    154      1     45     61       4253.          0.1000E-02
    155      1     45     62       4318.          0.1000E-02
    156      1     46     33       4285.          0.1000E-02
    157      1     46     34       4309.          0.1000E-02
    158      1     46     51       4072.          0.1000E-02
    159      1     47     32       4252.          0.1000E-02
    160      1     47     33       4297.          0.1000E-02
    161      1     47     35       4282.          0.1000E-02
    162      1     47     51       4067.          0.1000E-02
    163      1     48     32       4238.          0.1000E-02
    164      1     48     35       4250.          0.1000E-02
    165      1     48     51       4070.          0.1000E-02
    166      1     49     32       4223.          0.1000E-02
    167      1     49     35       4243.          0.1000E-02
    168      1     49     49       4037.          0.1000E-02
    169      1     49     50       4059.          0.1000E-02
    170      1     49     51       4130.          0.1000E-02
    171      1     50     32       4202.          0.1000E-02
    172      1     50     33       4249.          0.1000E-02
    173      1     50     36       4200.          0.1000E-02
    174      1     50     40       4245.          0.1000E-02
    175      1     50     49       4040.          0.1000E-02
    176      1     51     32       4199.          0.1000E-02
    177      1     51     33       4239.          0.1000E-02
    178      1     51     36       4169.          0.1000E-02
    179      1     51     40       4214.          0.1000E-02
    180      1     51     48       4021.          0.1000E-02
    181      1     51     49       4068.          0.1000E-02
    182      1     52     32       4188.          0.1000E-02
    183      1     52     33       4216.          0.1000E-02
    184      1     52     37       4189.          0.1000E-02
    185      1     52     39       4181.          0.1000E-02
    186      1     52     48       4023.          0.1000E-02
    187      1     53     24       4259.          0.1000E-02
    188      1     53     25       4246.          0.1000E-02
    189      1     53     26       4231.          0.1000E-02
    190      1     53     27       4212.          0.1000E-02
    191      1     53     28       4177.          0.1000E-02
    192      1     53     32       4189.          0.1000E-02
    193      1     53     37       4135.          0.1000E-02
    194      1     53     39       4161.          0.1000E-02
    195      1     53     48       4026.          0.1000E-02
    196      1     54     23       4298.          0.1000E-02
    197      1     54     24       4268.          0.1000E-02
    198      1     54     29       4143.          0.1000E-02
    199      1     54     30       4108.          0.1000E-02
    200      1     54     31       4152.          0.1000E-02
    201      1     54     38       4118.          0.1000E-02
    202      1     54     39       4133.          0.1000E-02
    203      1     54     48       4049.          0.1000E-02
    204      1     55     31       4066.          0.1000E-02
    205      1     55     38       4118.          0.1000E-02
    206      1     55     39       4099.          0.1000E-02
    207      1     55     47       4009.          0.1000E-02
    208      1     55     48       4092.          0.1000E-02
    209      1     56     26       4208.          0.1000E-02
    210      1     56     27       4193.          0.1000E-02
    211      1     56     32       4026.          0.1000E-02
    212      1     56     40       4097.          0.1000E-02
    213      1     56     47       4011.          0.1000E-02
    214      1     57     19       4267.          0.1000E-02
    215      1     57     27       4142.          0.1000E-02
    216      1     57     28       4144.          0.1000E-02
    217      1     57     32       4029.          0.1000E-02
    218      1     57     39       4070.          0.1000E-02
    219      1     57     40       4089.          0.1000E-02
    220      1     57     47       4026.          0.1000E-02
    221      1     58     20       4209.          0.1000E-02
    222      1     58     21       4166.          0.1000E-02
    223      1     58     22       4174.          0.1000E-02
    224      1     58     28       4099.          0.1000E-02
    225      1     58     32       3995.          0.1000E-02
    226      1     58     38       4034.          0.1000E-02
    227      1     58     39       4047.          0.1000E-02
    228      1     58     46       4012.          0.1000E-02
    229      1     58     47       4080.          0.1000E-02
    230      1     59     22       4127.          0.1000E-02
    231      1     59     28       4075.          0.1000E-02
    232      1     59     32       3967.          0.1000E-02
    233      1     59     38       4019.          0.1000E-02
    234      1     59     39       4026.          0.1000E-02
    235      1     59     44       4000.          0.1000E-02
    236      1     59     45       4014.          0.1000E-02
    237      1     60     22       4099.          0.1000E-02
    238      1     60     27       4057.          0.1000E-02
    239      1     60     32       3946.          0.1000E-02
    240      1     60     33       3962.          0.1000E-02
    241      1     60     38       3975.          0.1000E-02
    242      1     60     39       3985.          0.1000E-02
    243      1     60     43       3978.          0.1000E-02
    244      1     60     44       4006.          0.1000E-02
    245      1     60     46       4068.          0.1000E-02
    246      1     60     47       4080.          0.1000E-02
    247      1     61     22       4085.          0.1000E-02
    248      1     61     27       4004.          0.1000E-02
    249      1     61     32       3949.          0.1000E-02
    250      1     61     33       3924.          0.1000E-02
    251      1     61     36       3929.          0.1000E-02
    252      1     61     37       3955.          0.1000E-02
    253      1     61     38       3979.          0.1000E-02
    254      1     61     39       3989.          0.1000E-02
    255      1     61     40       3975.          0.1000E-02
    256      1     61     41       3978.          0.1000E-02
    257      1     61     42       4007.          0.1000E-02
    258      1     61     43       4013.          0.1000E-02
    259      1     61     47       4115.          0.1000E-02
    260      1     61     48       4090.          0.1000E-02
    261      1     61     49       4099.          0.1000E-02
    262      1     61     50       4097.          0.1000E-02
    263      1     61     51       4118.          0.1000E-02
    264      1     61     52       4131.          0.1000E-02
    265      1     61     53       4173.          0.1000E-02
    266      1     61     54       4192.          0.1000E-02
    267      1     61     55       4193.          0.1000E-02
    268      1     61     56       4200.          0.1000E-02
    269      1     61     57       4195.          0.1000E-02
    270      1     61     58       4206.          0.1000E-02
    271      1     61     59       4223.          0.1000E-02
    272      1     61     60       4226.          0.1000E-02
    273      1     62     23       4054.          0.1000E-02
    274      1     62     27       3990.          0.1000E-02
    275      1     62     31       3901.          0.1000E-02
    276      1     62     32       3896.          0.1000E-02
    277      1     62     33       3900.          0.1000E-02
    278      1     62     34       3919.          0.1000E-02
    279      1     62     35       3927.          0.1000E-02
    280      1     62     36       3941.          0.1000E-02
    281      1     62     37       3943.          0.1000E-02
    282      1     62     38       3998.          0.1000E-02
    283      1     62     51       4152.          0.1000E-02
    284      1     62     61       4264.          0.1000E-02
    285      1     62     62       4277.          0.1000E-02
    286      1     63     24       3974.          0.1000E-02
    287      1     63     25       3978.          0.1000E-02
    288      1     63     26       3983.          0.1000E-02
    289      1     63     27       3981.          0.1000E-02
    290      1     63     30       3896.          0.1000E-02
    291      1     63     31       3911.          0.1000E-02
    292      1     63     38       4020.          0.1000E-02
    293      1     63     39       4000.          0.1000E-02
    294      1     63     40       4028.          0.1000E-02
    295      1     63     51       4152.          0.1000E-02
    296      1     63     63       4292.          0.1000E-02
    297      1     63     64       4290.          0.1000E-02
    298      1     64     16       4242.          0.1000E-02
    299      1     64     17       4211.          0.1000E-02
    300      1     64     25       3932.          0.1000E-02
    301      1     64     26       3941.          0.1000E-02
    302      1     64     27       3920.          0.1000E-02
    303      1     64     28       3880.          0.1000E-02
    304      1     64     29       3906.          0.1000E-02
    305      1     64     41       4054.          0.1000E-02
    306      1     64     52       4175.          0.1000E-02
    307      1     64     64       4293.          0.1000E-02
    308      1     64     65       4309.          0.1000E-02
    309      1     65     18       4146.          0.1000E-02
    310      1     65     25       3928.          0.1000E-02
    311      1     65     26       3890.          0.1000E-02
    312      1     65     27       3889.          0.1000E-02
    313      1     65     28       3862.          0.1000E-02
    314      1     65     41       4046.          0.1000E-02
    315      1     65     52       4194.          0.1000E-02
    316      1     65     53       4218.          0.1000E-02
    317      1     65     65       4311.          0.1000E-02
    318      1     66     18       4118.          0.1000E-02
    319      1     66     26       3834.          0.1000E-02
    320      1     66     27       3838.          0.1000E-02
    321      1     66     28       3855.          0.1000E-02
    322      1     66     29       3866.          0.1000E-02
    323      1     66     41       4080.          0.1000E-02
    324      1     66     42       4085.          0.1000E-02
    325      1     66     53       4209.          0.1000E-02
    326      1     67     19       4059.          0.1000E-02
    327      1     67     26       3837.          0.1000E-02
    328      1     67     29       3915.          0.1000E-02
    329      1     67     30       3917.          0.1000E-02
    330      1     67     42       4093.          0.1000E-02
    331      1     67     53       4237.          0.1000E-02
    332      1     68     19       4058.          0.1000E-02
    333      1     68     20       4001.          0.1000E-02
    334      1     68     26       3827.          0.1000E-02
    335      1     68     30       3933.          0.1000E-02
    336      1     68     31       3947.          0.1000E-02
    337      1     68     42       4137.          0.1000E-02
    338      1     68     54       4248.          0.1000E-02
    339      1     69     21       3959.          0.1000E-02
    340      1     69     22       3932.          0.1000E-02
    341      1     69     26       3837.          0.1000E-02
    342      1     69     31       3994.          0.1000E-02
    343      1     69     32       3985.          0.1000E-02
    344      1     69     42       4181.          0.1000E-02
    345      1     69     55       4294.          0.1000E-02
    346      1     70     14       4257.          0.1000E-02
    347      1     70     22       3957.          0.1000E-02
    348      1     70     23       3894.          0.1000E-02
    349      1     70     24       3831.          0.1000E-02
    350      1     70     25       3810.          0.1000E-02
    351      1     70     26       3812.          0.1000E-02
    352      1     70     31       4016.          0.1000E-02
    353      1     70     32       4034.          0.1000E-02
    354      1     70     33       4022.          0.1000E-02
    355      1     70     41       4210.          0.1000E-02
    356      1     70     42       4225.          0.1000E-02
    357      1     70     55       4274.          0.1000E-02
    358      1     71     15       4203.          0.1000E-02
    359      1     71     25       3797.          0.1000E-02
    360      1     71     26       3810.          0.1000E-02
    361      1     71     31       4033.          0.1000E-02
    362      1     71     41       4234.          0.1000E-02
    363      1     71     42       4272.          0.1000E-02
    364      1     71     56       4297.          0.1000E-02
    365      1     72     15       4166.          0.1000E-02
    366      1     72     18       4118.          0.1000E-02
    367      1     72     19       4044.          0.1000E-02
    368      1     72     20       4003.          0.1000E-02
    369      1     72     21       3963.          0.1000E-02
    370      1     72     22       3918.          0.1000E-02
    371      1     72     23       3887.          0.1000E-02
    372      1     72     24       3845.          0.1000E-02
    373      1     72     25       3796.          0.1000E-02
    374      1     72     26       3801.          0.1000E-02
    375      1     72     31       4023.          0.1000E-02
    376      1     72     32       4050.          0.1000E-02
    377      1     72     33       4065.          0.1000E-02
    378      1     72     34       4061.          0.1000E-02
    379      1     72     42       4267.          0.1000E-02
    380      1     72     51       4336.          0.1000E-02
    381      1     72     57       4312.          0.1000E-02
    382      1     72     58       4321.          0.1000E-02
    383      1     72     59       4348.          0.1000E-02
    384      1     72     60       4343.          0.1000E-02
    385      1     72     61       4355.          0.1000E-02
    386      1     72     62       4374.          0.1000E-02
    387      1     73     15       4099.          0.1000E-02
    388      1     73     26       3813.          0.1000E-02
    389      1     73     32       4075.          0.1000E-02
    390      1     73     35       4090.          0.1000E-02
    391      1     73     51       4302.          0.1000E-02
    392      1     73     52       4286.          0.1000E-02
    393      1     74      9       4174.          0.1000E-02
    394      1     74     15       4075.          0.1000E-02
    395      1     74     25       3771.          0.1000E-02
    396      1     74     26       3820.          0.1000E-02
    397      1     74     35       4083.          0.1000E-02
    398      1     74     52       4279.          0.1000E-02
    399      1     74     53       4241.          0.1000E-02
    400      1     74     57       4282.          0.1000E-02
    401      1     75      9       4139.          0.1000E-02
    402      1     75     10       4182.          0.1000E-02
    403      1     75     16       4009.          0.1000E-02
    404      1     75     25       3770.          0.1000E-02
    405      1     75     26       3828.          0.1000E-02
    406      1     75     27       3861.          0.1000E-02
    407      1     75     28       3922.          0.1000E-02
    408      1     75     35       4096.          0.1000E-02
    409      1     75     53       4183.          0.1000E-02
    410      1     75     56       4231.          0.1000E-02
    411      1     75     57       4257.          0.1000E-02
    412      1     76     10       4102.          0.1000E-02
    413      1     76     17       3960.          0.1000E-02
    414      1     76     25       3781.          0.1000E-02
    415      1     76     28       3958.          0.1000E-02
    416      1     76     29       3968.          0.1000E-02
    417      1     76     35       4107.          0.1000E-02
    418      1     76     43       4151.          0.1000E-02
    419      1     76     54       4167.          0.1000E-02
    420      1     76     55       4219.          0.1000E-02
    421      1     77     10       4055.          0.1000E-02
    422      1     77     17       3977.          0.1000E-02
    423      1     77     18       3922.          0.1000E-02
    424      1     77     24       3754.          0.1000E-02
    425      1     77     25       3811.          0.1000E-02
    426      1     77     29       4016.          0.1000E-02
    427      1     77     30       4052.          0.1000E-02
    428      1     77     43       4100.          0.1000E-02
    429      1     77     54       4176.          0.1000E-02
    430      1     78     11       4002.          0.1000E-02
    431      1     78     18       3975.          0.1000E-02
    432      1     78     19       3887.          0.1000E-02
    433      1     78     24       3746.          0.1000E-02
    434      1     78     39       4136.          0.1000E-02
    435      1     78     44       4072.          0.1000E-02
    436      1     78     53       4110.          0.1000E-02
    437      1     78     54       4209.          0.1000E-02
    438      1     79     12       3977.          0.1000E-02
    439      1     79     20       3841.          0.1000E-02
    440      1     79     24       3768.          0.1000E-02
    441      1     79     39       4122.          0.1000E-02
    442      1     79     44       4058.          0.1000E-02
    443      1     79     52       4077.          0.1000E-02
    444      1     79     53       4120.          0.1000E-02
    445      1     79     77       4341.          0.1000E-02
    446      1     80     12       3977.          0.1000E-02
    447      1     80     13       3963.          0.1000E-02
    448      1     80     21       3800.          0.1000E-02
    449      1     80     24       3758.          0.1000E-02
    450      1     80     37       4076.          0.1000E-02
    451      1     80     38       4110.          0.1000E-02
    452      1     80     45       4043.          0.1000E-02
    453      1     80     52       4073.          0.1000E-02
    454      1     80     77       4333.          0.1000E-02
    455      1     81     11       3982.          0.1000E-02
    456      1     81     12       3970.          0.1000E-02
    457      1     81     13       3931.          0.1000E-02
    458      1     81     22       3794.          0.1000E-02
    459      1     81     23       3739.          0.1000E-02
    460      1     81     24       3742.          0.1000E-02
    461      1     81     35       4026.          0.1000E-02
    462      1     81     36       4053.          0.1000E-02
    463      1     81     37       4086.          0.1000E-02
    464      1     81     45       4013.          0.1000E-02
    465      1     81     52       4055.          0.1000E-02
    466      1     81     77       4340.          0.1000E-02
    467      1     82      6       4199.          0.1000E-02
    468      1     82      7       4143.          0.1000E-02
    469      1     82      8       4104.          0.1000E-02
    470      1     82      9       4051.          0.1000E-02
    471      1     82     10       4060.          0.1000E-02
    472      1     82     11       4015.          0.1000E-02
    473      1     82     14       3983.          0.1000E-02
    474      1     82     15       3950.          0.1000E-02
    475      1     82     16       3931.          0.1000E-02
    476      1     82     17       3884.          0.1000E-02
    477      1     82     18       3852.          0.1000E-02
    478      1     82     21       3745.          0.1000E-02
    479      1     82     24       3743.          0.1000E-02
    480      1     82     33       3967.          0.1000E-02
    481      1     82     34       4022.          0.1000E-02
    482      1     82     44       4007.          0.1000E-02
    483      1     82     46       3983.          0.1000E-02
    484      1     82     52       4025.          0.1000E-02
    485      1     82     59       4162.          0.1000E-02
    486      1     82     60       4206.          0.1000E-02
    487      1     82     75       4270.          0.1000E-02
    488      1     82     76       4316.          0.1000E-02
    489      1     83     18       3927.          0.1000E-02
    490      1     83     19       3855.          0.1000E-02
    491      1     83     20       3801.          0.1000E-02
    492      1     83     21       3772.          0.1000E-02
    493      1     83     22       3723.          0.1000E-02
    494      1     83     23       3722.          0.1000E-02
    495      1     83     24       3765.          0.1000E-02
    496      1     83     32       3953.          0.1000E-02
    497      1     83     33       3957.          0.1000E-02
    498      1     83     45       3973.          0.1000E-02
    499      1     83     46       3959.          0.1000E-02
    500      1     83     47       3968.          0.1000E-02
    501      1     83     48       3970.          0.1000E-02
    502      1     83     52       4028.          0.1000E-02
    503      1     83     58       4135.          0.1000E-02
    504      1     83     59       4166.          0.1000E-02
    505      1     83     71       4226.          0.1000E-02
    506      1     83     74       4257.          0.1000E-02
    507      1     83     75       4297.          0.1000E-02
    508      1     84     23       3702.          0.1000E-02
    509      1     84     32       3906.          0.1000E-02
    510      1     84     46       3942.          0.1000E-02
    511      1     84     48       3939.          0.1000E-02
    512      1     84     49       4022.          0.1000E-02
    513      1     84     52       3996.          0.1000E-02
    514      1     84     56       4069.          0.1000E-02
    515      1     84     57       4102.          0.1000E-02
    516      1     84     66       4319.          0.1000E-02
    517      1     84     71       4220.          0.1000E-02
    518      1     84     72       4229.          0.1000E-02
    519      1     84     73       4252.          0.1000E-02
    520      1     84     74       4307.          0.1000E-02
    521      1     85     23       3692.          0.1000E-02
    522      1     85     32       3900.          0.1000E-02
    523      1     85     47       3942.          0.1000E-02
    524      1     85     49       3975.          0.1000E-02
    525      1     85     52       3979.          0.1000E-02
    526      1     85     55       4033.          0.1000E-02
    527      1     85     56       4039.          0.1000E-02
    528      1     85     66       4274.          0.1000E-02
    529      1     85     71       4207.          0.1000E-02
    530      1     86     23       3697.          0.1000E-02
    531      1     86     31       3890.          0.1000E-02
    532      1     86     47       3925.          0.1000E-02
    533      1     86     49       3947.          0.1000E-02
    534      1     86     52       3969.          0.1000E-02
    535      1     86     55       3992.          0.1000E-02
    536      1     86     67       4224.          0.1000E-02
    537      1     86     71       4208.          0.1000E-02
    538      1     87     23       3728.          0.1000E-02
    539      1     87     24       3725.          0.1000E-02
    540      1     87     30       3883.          0.1000E-02
    541      1     87     45       3918.          0.1000E-02
    542      1     87     47       3920.          0.1000E-02
    543      1     87     48       3909.          0.1000E-02
    544      1     87     49       3884.          0.1000E-02
    545      1     87     52       3958.          0.1000E-02
    546      1     87     55       4006.          0.1000E-02
    547      1     87     68       4188.          0.1000E-02
    548      1     87     69       4166.          0.1000E-02
    549      1     87     71       4209.          0.1000E-02
    550      1     88     24       3694.          0.1000E-02
    551      1     88     28       3829.          0.1000E-02
    552      1     88     29       3877.          0.1000E-02
    553      1     88     45       3911.          0.1000E-02
    554      1     88     46       3930.          0.1000E-02
    555      1     88     48       3880.          0.1000E-02
    556      1     88     49       3868.          0.1000E-02
    557      1     88     50       3924.          0.1000E-02
    558      1     88     52       3953.          0.1000E-02
    559      1     88     54       3928.          0.1000E-02
    560      1     88     55       4015.          0.1000E-02
    561      1     88     58       4097.          0.1000E-02
    562      1     88     59       4125.          0.1000E-02
    563      1     88     60       4147.          0.1000E-02
    564      1     88     69       4139.          0.1000E-02
    565      1     88     70       4165.          0.1000E-02
    566      1     89     19       3872.          0.1000E-02
    567      1     89     20       3800.          0.1000E-02
    568      1     89     21       3814.          0.1000E-02
    569      1     89     22       3765.          0.1000E-02
    570      1     89     23       3740.          0.1000E-02
    571      1     89     24       3686.          0.1000E-02
    572      1     89     27       3751.          0.1000E-02
    573      1     89     46       3889.          0.1000E-02
    574      1     89     47       3886.          0.1000E-02
    575      1     89     49       3848.          0.1000E-02
    576      1     89     50       3884.          0.1000E-02
    577      1     89     51       3849.          0.1000E-02
    578      1     89     54       3926.          0.1000E-02
    579      1     89     55       4001.          0.1000E-02
    580      1     89     56       4017.          0.1000E-02
    581      1     89     57       4032.          0.1000E-02
    582      1     89     58       4115.          0.1000E-02
    583      1     89     69       4135.          0.1000E-02
    584      1     89     70       4178.          0.1000E-02
    585      1     90      6       4106.          0.1000E-02
    586      1     90      7       4067.          0.1000E-02
    587      1     90      8       4061.          0.1000E-02
    588      1     90      9       4053.          0.1000E-02
    589      1     90     10       4022.          0.1000E-02
    590      1     90     11       4010.          0.1000E-02
    591      1     90     12       3996.          0.1000E-02
    592      1     90     13       3978.          0.1000E-02
    593      1     90     14       3977.          0.1000E-02
    594      1     90     16       3947.          0.1000E-02
    595      1     90     17       3981.          0.1000E-02
    596      1     90     18       3943.          0.1000E-02
    597      1     90     24       3673.          0.1000E-02
    598      1     90     27       3752.          0.1000E-02
    599      1     90     47       3863.          0.1000E-02
    600      1     90     49       3865.          0.1000E-02
    601      1     90     50       3831.          0.1000E-02
    602      1     90     51       3841.          0.1000E-02
    603      1     90     53       3867.          0.1000E-02
    604      1     90     56       3992.          0.1000E-02
    605      1     90     57       4066.          0.1000E-02
    606      1     90     58       4108.          0.1000E-02
    607      1     90     59       4142.          0.1000E-02
    608      1     90     69       4142.          0.1000E-02
    609      1     91     15       3984.          0.1000E-02
    610      1     91     16       3953.          0.1000E-02
    611      1     91     24       3677.          0.1000E-02
    612      1     91     27       3755.          0.1000E-02
    613      1     91     32       3926.          0.1000E-02
    614      1     91     33       4001.          0.1000E-02
    615      1     91     34       4043.          0.1000E-02
    616      1     91     47       3855.          0.1000E-02
    617      1     91     50       3851.          0.1000E-02
    618      1     91     51       3865.          0.1000E-02
    619      1     91     53       3844.          0.1000E-02
    620      1     91     54       3920.          0.1000E-02
    621      1     91     55       3952.          0.1000E-02
    622      1     91     56       3999.          0.1000E-02
    623      1     91     68       4108.          0.1000E-02
    624      1     92     16       3971.          0.1000E-02
    625      1     92     17       4005.          0.1000E-02
    626      1     92     24       3656.          0.1000E-02
    627      1     92     25       3671.          0.1000E-02
    628      1     92     26       3671.          0.1000E-02
    629      1     92     31       3851.          0.1000E-02
    630      1     92     32       3898.          0.1000E-02
    631      1     92     37       4101.          0.1000E-02
    632      1     92     48       3858.          0.1000E-02
    633      1     92     49       3797.          0.1000E-02
    634      1     92     51       3794.          0.1000E-02
    635      1     92     53       3860.          0.1000E-02
    636      1     92     54       3978.          0.1000E-02
    637      1     92     68       4114.          0.1000E-02
    638      1     93     16       3994.          0.1000E-02
    639      1     93     17       4019.          0.1000E-02
    640      1     93     25       3635.          0.1000E-02
    641      1     93     26       3662.          0.1000E-02
    642      1     93     31       3835.          0.1000E-02
    643      1     93     36       4004.          0.1000E-02
    644      1     93     37       4091.          0.1000E-02
    645      1     93     49       3829.          0.1000E-02
    646      1     93     50       3800.          0.1000E-02
    647      1     93     51       3762.          0.1000E-02
    648      1     93     52       3826.          0.1000E-02
    649      1     93     67       4088.          0.1000E-02
    650      1     94     16       4015.          0.1000E-02
    651      1     94     25       3703.          0.1000E-02
    652      1     94     26       3697.          0.1000E-02
    653      1     94     27       3627.          0.1000E-02
    654      1     94     30       3776.          0.1000E-02
    655      1     94     31       3842.          0.1000E-02
    656      1     94     35       3926.          0.1000E-02
    657      1     94     36       3986.          0.1000E-02
    658      1     94     40       3963.          0.1000E-02
    659      1     94     47       3830.          0.1000E-02
    660      1     94     51       3760.          0.1000E-02
    661      1     94     52       3809.          0.1000E-02
    662      1     94     59       4090.          0.1000E-02
    663      1     94     60       4095.          0.1000E-02
    664      1     94     66       4087.          0.1000E-02
    665      1     95     15       4092.          0.1000E-02
    666      1     95     16       4051.          0.1000E-02
    667      1     95     19       4013.          0.1000E-02
    668      1     95     20       3963.          0.1000E-02
    669      1     95     21       3923.          0.1000E-02
    670      1     95     22       3872.          0.1000E-02
    671      1     95     23       3851.          0.1000E-02
    672      1     95     24       3796.          0.1000E-02
    673      1     95     27       3639.          0.1000E-02
    674      1     95     28       3669.          0.1000E-02
    675      1     95     30       3726.          0.1000E-02
    676      1     95     33       3813.          0.1000E-02
    677      1     95     34       3867.          0.1000E-02
    678      1     95     35       3921.          0.1000E-02
    679      1     95     40       3954.          0.1000E-02
    680      1     95     48       3789.          0.1000E-02
    681      1     95     51       3743.          0.1000E-02
    682      1     95     56       3937.          0.1000E-02
    683      1     95     57       4001.          0.1000E-02
    684      1     95     58       4040.          0.1000E-02
    685      1     95     65       4058.          0.1000E-02
    686      1     96     15       4126.          0.1000E-02
    687      1     96     28       3632.          0.1000E-02
    688      1     96     29       3635.          0.1000E-02
    689      1     96     30       3706.          0.1000E-02
    690      1     96     31       3772.          0.1000E-02
    691      1     96     32       3796.          0.1000E-02
    692      1     96     33       3828.          0.1000E-02
    693      1     96     40       3941.          0.1000E-02
    694      1     96     49       3786.          0.1000E-02
    695      1     96     51       3717.          0.1000E-02
    696      1     96     55       3890.          0.1000E-02
    697      1     96     56       3967.          0.1000E-02
    698      1     96     65       4064.          0.1000E-02
    699      1     97     15       4156.          0.1000E-02
    700      1     97     29       3617.          0.1000E-02
    701      1     97     40       3917.          0.1000E-02
    702      1     97     49       3737.          0.1000E-02
    703      1     97     50       3707.          0.1000E-02
    704      1     97     51       3749.          0.1000E-02
    705      1     97     54       3820.          0.1000E-02
    706      1     97     55       3898.          0.1000E-02
    707      1     97     65       4079.          0.1000E-02
    708      1     98     29       3627.          0.1000E-02
    709      1     98     30       3604.          0.1000E-02
    710      1     98     31       3630.          0.1000E-02
    711      1     98     39       3866.          0.1000E-02
    712      1     98     40       3892.          0.1000E-02
    713      1     98     51       3683.          0.1000E-02
    714      1     98     52       3753.          0.1000E-02
    715      1     98     53       3790.          0.1000E-02
    716      1     98     54       3814.          0.1000E-02
    717      1     98     64       4007.          0.1000E-02
    718      1     98     65       4096.          0.1000E-02
    719      1     99     23       3886.          0.1000E-02
    720      1     99     24       3866.          0.1000E-02
    721      1     99     29       3680.          0.1000E-02
    722      1     99     31       3583.          0.1000E-02
    723      1     99     40       3864.          0.1000E-02
    724      1     99     51       3639.          0.1000E-02
    725      1     99     52       3708.          0.1000E-02
    726      1     99     64       4027.          0.1000E-02
    727      1    100     24       3879.          0.1000E-02
    728      1    100     25       3857.          0.1000E-02
    729      1    100     26       3787.          0.1000E-02
    730      1    100     27       3755.          0.1000E-02
    731      1    100     28       3718.          0.1000E-02
    732      1    100     29       3698.          0.1000E-02
    733      1    100     31       3634.          0.1000E-02
    734      1    100     32       3557.          0.1000E-02
    735      1    100     39       3817.          0.1000E-02
    736      1    100     43       3886.          0.1000E-02
    737      1    100     50       3637.          0.1000E-02
    738      1    100     51       3663.          0.1000E-02
    739      1    100     52       3656.          0.1000E-02
    740      1    100     64       4050.          0.1000E-02
    741      1    101     27       3798.          0.1000E-02
    742      1    101     33       3546.          0.1000E-02
    743      1    101     40       3781.          0.1000E-02
    744      1    101     43       3842.          0.1000E-02
    745      1    101     50       3654.          0.1000E-02
    746      1    101     52       3698.          0.1000E-02
    747      1    101     53       3699.          0.1000E-02
    748      1    101     54       3730.          0.1000E-02
    749      1    101     55       3765.          0.1000E-02
    750      1    101     56       3762.          0.1000E-02
    751      1    101     63       3964.          0.1000E-02
    752      1    102     33       3602.          0.1000E-02
    753      1    102     34       3532.          0.1000E-02
    754      1    102     40       3735.          0.1000E-02
    755      1    102     43       3806.          0.1000E-02
    756      1    102     50       3658.          0.1000E-02
    757      1    102     57       3789.          0.1000E-02
    758      1    102     63       3977.          0.1000E-02
    759      1    103     34       3539.          0.1000E-02
    760      1    103     40       3701.          0.1000E-02
    761      1    103     41       3737.          0.1000E-02
    762      1    103     43       3794.          0.1000E-02
    763      1    103     49       3571.          0.1000E-02
    764      1    103     50       3652.          0.1000E-02
    765      1    103     57       3856.          0.1000E-02
    766      1    103     58       3850.          0.1000E-02
    767      1    103     59       3865.          0.1000E-02
    768      1    103     60       3878.          0.1000E-02
    769      1    103     61       3926.          0.1000E-02
    770      1    103     62       3986.          0.1000E-02
    771      1    104     17       4062.          0.1000E-02
    772      1    104     34       3550.          0.1000E-02
    773      1    104     41       3657.          0.1000E-02
    774      1    104     43       3783.          0.1000E-02
    775      1    104     49       3573.          0.1000E-02
    776      1    105     17       4069.          0.1000E-02
    777      1    105     18       4040.          0.1000E-02
    778      1    105     19       4011.          0.1000E-02
    779      1    105     27       3759.          0.1000E-02
    780      1    105     34       3534.          0.1000E-02
    781      1    105     41       3680.          0.1000E-02
    782      1    105     42       3626.          0.1000E-02
    783      1    105     49       3633.          0.1000E-02
    784      1    106     19       4012.          0.1000E-02
    785      1    106     20       3920.          0.1000E-02
    786      1    106     21       3889.          0.1000E-02
    787      1    106     22       3850.          0.1000E-02
    788      1    106     28       3700.          0.1000E-02
    789      1    106     34       3504.          0.1000E-02
    790      1    106     42       3661.          0.1000E-02
    791      1    106     43       3628.          0.1000E-02
    792      1    106     48       3570.          0.1000E-02
    793      1    107     22       3855.          0.1000E-02
    794      1    107     23       3807.          0.1000E-02
    795      1    107     27       3747.          0.1000E-02
    796      1    107     28       3727.          0.1000E-02
    797      1    107     29       3689.          0.1000E-02
    798      1    107     30       3632.          0.1000E-02
    799      1    107     34       3499.          0.1000E-02
    800      1    107     43       3614.          0.1000E-02
    801      1    107     44       3556.          0.1000E-02
    802      1    107     47       3508.          0.1000E-02
    803      1    108     21       3893.          0.1000E-02
    804      1    108     22       3909.          0.1000E-02
    805      1    108     23       3862.          0.1000E-02
    806      1    108     24       3829.          0.1000E-02
    807      1    108     25       3786.          0.1000E-02
    808      1    108     26       3758.          0.1000E-02
    809      1    108     27       3732.          0.1000E-02
    810      1    108     31       3636.          0.1000E-02
    811      1    108     32       3590.          0.1000E-02
    812      1    108     33       3507.          0.1000E-02
    813      1    108     34       3526.          0.1000E-02
    814      1    108     44       3538.          0.1000E-02
    815      1    108     45       3562.          0.1000E-02
    816      1    108     47       3508.          0.1000E-02
    817      1    108     48       3552.          0.1000E-02
    818      1    108     49       3603.          0.1000E-02
    819      1    108     50       3618.          0.1000E-02
    820      1    109     20       3958.          0.1000E-02
    821      1    109     33       3510.          0.1000E-02
    822      1    109     34       3582.          0.1000E-02
    823      1    109     45       3498.          0.1000E-02
    824      1    109     47       3537.          0.1000E-02
    825      1    109     51       3664.          0.1000E-02
    826      1    109     52       3686.          0.1000E-02
    827      1    109     53       3720.          0.1000E-02
    828      1    109     54       3756.          0.1000E-02
    829      1    109     55       3830.          0.1000E-02
    830      1    109     56       3906.          0.1000E-02
    831      1    110     17       3955.          0.1000E-02
    832      1    110     18       3971.          0.1000E-02
    833      1    110     19       3999.          0.1000E-02
    834      1    110     33       3525.          0.1000E-02
    835      1    110     34       3526.          0.1000E-02
    836      1    110     46       3493.          0.1000E-02
    837      1    110     47       3529.          0.1000E-02
    838      1    111     16       3990.          0.1000E-02
    839      1    111     17       3972.          0.1000E-02
    840      1    111     34       3482.          0.1000E-02
    841      1    111     46       3545.          0.1000E-02
    842      1    112     35       3479.          0.1000E-02
    843      1    112     37       3459.          0.1000E-02
    844      1    112     45       3532.          0.1000E-02
    845      1    113     34       3584.          0.1000E-02
    846      1    113     35       3560.          0.1000E-02
    847      1    113     36       3525.          0.1000E-02
    848      1    113     37       3499.          0.1000E-02
    849      1    113     38       3470.          0.1000E-02
    850      1    113     39       3460.          0.1000E-02
    851      1    113     40       3467.          0.1000E-02
    852      1    113     43       3451.          0.1000E-02
    853      1    113     44       3492.          0.1000E-02
    854      1    113     49       3555.          0.1000E-02
    855      1    113     50       3559.          0.1000E-02
    856      1    113     62       3949.          0.1000E-02
    857      1    114     33       3653.          0.1000E-02
    858      1    114     40       3447.          0.1000E-02
    859      1    114     43       3456.          0.1000E-02
    860      1    114     48       3539.          0.1000E-02
    861      1    114     49       3536.          0.1000E-02
    862      1    114     50       3541.          0.1000E-02
    863      1    114     51       3558.          0.1000E-02
    864      1    114     63       3919.          0.1000E-02
    865      1    115     25       3893.          0.1000E-02
    866      1    115     26       3873.          0.1000E-02
    867      1    115     27       3859.          0.1000E-02
    868      1    115     28       3831.          0.1000E-02
    869      1    115     29       3792.          0.1000E-02
    870      1    115     30       3734.          0.1000E-02
    871      1    115     31       3706.          0.1000E-02
    872      1    115     32       3714.          0.1000E-02
    873      1    115     41       3442.          0.1000E-02
    874      1    115     43       3438.          0.1000E-02
    875      1    115     44       3432.          0.1000E-02
    876      1    115     46       3481.          0.1000E-02
    877      1    115     47       3516.          0.1000E-02
    878      1    115     48       3539.          0.1000E-02
    879      1    115     49       3561.          0.1000E-02
    880      1    115     50       3563.          0.1000E-02
    881      1    115     51       3547.          0.1000E-02
    882      1    115     52       3565.          0.1000E-02
    883      1    115     63       3866.          0.1000E-02
    884      1    116     29       3781.          0.1000E-02
    885      1    116     30       3765.          0.1000E-02
    886      1    116     31       3784.          0.1000E-02
    887      1    116     41       3485.          0.1000E-02
    888      1    116     42       3442.          0.1000E-02
    889      1    116     43       3436.          0.1000E-02
    890      1    116     44       3434.          0.1000E-02
    891      1    116     45       3424.          0.1000E-02
    892      1    116     46       3467.          0.1000E-02
    893      1    116     48       3541.          0.1000E-02
    894      1    116     63       3907.          0.1000E-02
    895      1    116     64       3837.          0.1000E-02
    896      1    117     27       3868.          0.1000E-02
    897      1    117     28       3850.          0.1000E-02
    898      1    117     45       3426.          0.1000E-02
    899      1    117     46       3443.          0.1000E-02
    900      1    117     64       3790.          0.1000E-02
    901      1    118     26       3930.          0.1000E-02
    902      1    118     45       3422.          0.1000E-02
    903      1    118     46       3447.          0.1000E-02
    904      1    118     65       3753.          0.1000E-02
    905      1    119     26       3991.          0.1000E-02
    906      1    119     45       3416.          0.1000E-02
    907      1    119     65       3745.          0.1000E-02
    908      1    120     24       4038.          0.1000E-02
    909      1    120     25       4058.          0.1000E-02
    910      1    120     45       3413.          0.1000E-02
    911      1    120     65       3713.          0.1000E-02
    912      1    121     45       3411.          0.1000E-02
    913      1    121     46       3461.          0.1000E-02
    914      1    121     65       3626.          0.1000E-02
    915      1    122     45       3417.          0.1000E-02
    916      1    122     46       3441.          0.1000E-02
    917      1    122     65       3602.          0.1000E-02
    918      1    123     46       3406.          0.1000E-02
    919      1    123     47       3410.          0.1000E-02
    920      1    123     64       3518.          0.1000E-02
    921      1    123     65       3525.          0.1000E-02
    922      1    124     46       3408.          0.1000E-02
    923      1    124     47       3407.          0.1000E-02
    924      1    124     62       3489.          0.1000E-02
    925      1    124     63       3560.          0.1000E-02
    926      1    125     60       3468.          0.1000E-02
    927      1    125     61       3466.          0.1000E-02
    928      1    125     62       3540.          0.1000E-02
    929      1    126     60       3446.          0.1000E-02

    929 DRAINS



                         ET SURFACE
 READING ON UNIT   22 WITH FORMAT: (108E15.6)          



            EVAPOTRANSPIRATION RATE
 READING ON UNIT   22 WITH FORMAT: (108E15.6)          

         EXTINCTION DEPTH =  0.500000    



                           RECHARGE
 READING ON UNIT   19 WITH FORMAT: (108E15.6)          
 
 SOLVING FOR HEAD 

    ------------------------------------------------
       NWT REQUIRED           67 OUTER ITERATIONS 
       AND A TOTAL OF      13400 INNER ITERATIONS.
    ------------------------------------------------

 OUTPUT CONTROL FOR STRESS PERIOD    1   TIME STEP    1
    SAVE HEAD FOR ALL LAYERS

 HEAD WILL BE SAVED ON UNIT   51 AT END OF TIME STEP    1, STRESS PERIOD    1
1
  VOLUMETRIC BUDGET FOR ENTIRE MODEL AT END OF TIME STEP    1, STRESS PERIOD   1
  ------------------------------------------------------------------------------

     CUMULATIVE VOLUMES      L**3       RATES FOR THIS TIME STEP      L**3/T
     ------------------                 ------------------------

           IN:                                      IN:
           ---                                      ---
             STORAGE =           0.0000               STORAGE =           0.0000
       CONSTANT HEAD =           0.0000         CONSTANT HEAD =           0.0000
              DRAINS =           0.0000                DRAINS =           0.0000
                  ET =           0.0000                    ET =           0.0000
            RECHARGE =           0.9738              RECHARGE =           0.9738

            TOTAL IN =           0.9738              TOTAL IN =           0.9738

          OUT:                                     OUT:
          ----                                     ----
             STORAGE =           0.0000               STORAGE =           0.0000
       CONSTANT HEAD =           0.0000         CONSTANT HEAD =           0.0000
              DRAINS =           0.5248                DRAINS =           0.5248
                  ET =           0.4490                    ET =           0.4490
            RECHARGE =           0.0000              RECHARGE =           0.0000

           TOTAL OUT =           0.9738             TOTAL OUT =           0.9738

            IN - OUT =      -2.6822E-05              IN - OUT =      -2.6822E-05

 PERCENT DISCREPANCY =          -0.00     PERCENT DISCREPANCY =          -0.00






         TIME SUMMARY AT END OF TIME STEP    1 IN STRESS PERIOD    1
                    SECONDS     MINUTES      HOURS       DAYS        YEARS
                    -----------------------------------------------------------
   TIME STEP LENGTH  1.0000     1.66667E-02 2.77778E-04 1.15741E-05 3.16881E-08
 STRESS PERIOD TIME  1.0000     1.66667E-02 2.77778E-04 1.15741E-05 3.16881E-08
         TOTAL TIME  1.0000     1.66667E-02 2.77778E-04 1.15741E-05 3.16881E-08
1

 Run end date and time (yyyy/mm/dd hh:mm:ss): 2019/07/29 12:56:12
 Elapsed run time: 41.683 Seconds

